/*--------------------------------*- C++ -*----------------------------------*\
| =========                 |                                                 |
| \\      /  F ield         | OpenFOAM: The Open Source CFD Toolbox           |
|  \\    /   O peration     | Version:  2106                                  |
|   \\  /    A nd           | Website:  www.openfoam.com                      |
|    \\/     M anipulation  |                                                 |
\*---------------------------------------------------------------------------*/
FoamFile
{
    version     2.0;
    format      ascii;
    arch        "LSB;label=32;scalar=64";
    class       polyBoundaryMesh;
    location    "constant/Helium/polyMesh";
    object      boundary;
}
// * * * * * * * * * * * * * * * * * * * * * * * * * * * * * * * * * * * * * //

5
(
    bottom
    {
        type            patch;
        nFaces          900;
        startFace       143020;
    }
    leftLet
    {
        type            patch;
        nFaces          80;
        startFace       143920;
    }
    rightLet
    {
        type            patch;
        nFaces          80;
        startFace       144000;
    }
    frontAndBack
    {
        type            empty;
        inGroups        1(empty);
        nFaces          144000;
        startFace       144080;
    }
    Helium_to_topWall
    {
        type            mappedWall;
        inGroups        1(wall);
        nFaces          900;
        startFace       288080;
        sampleMode      nearestPatchFace;
        sampleRegion    topWall;
        samplePatch     topWall_to_Helium;
    }
)

// ************************************************************************* //
