/*--------------------------------*- C++ -*----------------------------------*\
| =========                 |                                                 |
| \\      /  F ield         | OpenFOAM: The Open Source CFD Toolbox           |
|  \\    /   O peration     | Version:  2106                                  |
|   \\  /    A nd           | Website:  www.openfoam.com                      |
|    \\/     M anipulation  |                                                 |
\*---------------------------------------------------------------------------*/
FoamFile
{
    version     2.0;
    format      ascii;
    arch        "LSB;label=32;scalar=64";
    class       polyBoundaryMesh;
    location    "constant/polyMesh";
    object      boundary;
}
// * * * * * * * * * * * * * * * * * * * * * * * * * * * * * * * * * * * * * //

5
(
    topWall_top
    {
        type            patch;
        nFaces          900;
        startFace       161010;
    }
    bottom
    {
        type            patch;
        nFaces          900;
        startFace       161910;
    }
    leftLet
    {
        type            patch;
        nFaces          90;
        startFace       162810;
    }
    rightLet
    {
        type            patch;
        nFaces          90;
        startFace       162900;
    }
    frontAndBack
    {
        type            empty;
        inGroups        1(empty);
        nFaces          162000;
        startFace       162990;
    }
)

// ************************************************************************* //
