/*--------------------------------*- C++ -*----------------------------------*\
| =========                 |                                                 |
| \\      /  F ield         | OpenFOAM: The Open Source CFD Toolbox           |
|  \\    /   O peration     | Version:  2.1.x                                 |
|   \\  /    A nd           | Web:      www.OpenFOAM.org                      |
|    \\/     M anipulation  |                                                 |
\*---------------------------------------------------------------------------*/
FoamFile
{
    version     2.0;
    format      ascii;
    class       dictionary;
    object      blockMeshDict;
}
// * * * * * * * * * * * * * * * * * * * * * * * * * * * * * * * * * * * * * //

scale 1.0;

vertices
(
    (0 0 0) //0
    (2 0 0) //1
    (2 0.2 0) //2
    (0 0.2 0) //3
    (0 0 0.1) //4
    (2 0 0.1) //5
    (2 0.2 0.1) //6
    (0 0.2 0.1) //7
    (0 0.2 0) //8
    (2 0.2 0) //9
    (2 0.26 0) //10
    (0 0.26 0) //11
    (0 0.2 0.1) //12
    (2 0.2 0.1) //13
    (2 0.26 0.1) //14
    (0 0.26 0.1) //15
    (-0.5 0 0) //16
    (2.5 0 0) //17
    (2.5 0.2 0) //18
    (-0.5 0.2 0) //19
    (-0.5 0 0.1) //20
    (2.5 0 0.1) //21
    (2.5 0.2 0.1) //22
    (-0.5 0.2 0.1) //23
);

blocks
(
    hex (0 1 2 3 4 5 6 7) (900 100 1) simpleGrading (1 -6 1)
    hex (8 9 10 11 12 13 14 15) (900 10 1) simpleGrading (1 1 1)
    hex (16 0 3 19 20 4 7 23)  (100 100 1) simpleGrading (-4 -6 1)
    hex (1 17 18 2 5 21 22 6)  (100 100 1) simpleGrading (4 -6 1)
);

edges
(

);

boundary
(
    topWall_inAd
    {
        type patch;
        faces
        (
            (19 3 7 23)
        );
    }
    topWall_outAd
    {
        type patch;
        faces
        (
            (2 18 22 6)
        );
    }
    internal_top
    {
        type patch;
        faces
        (
            (3 7 6 2)
        );
    }
    topWall_bottom
    {
        type patch;
        faces
        (
            (8 12 13 9)
        );
    }
    topWall_top
    {
        type patch;
        faces
        (
            (11 15 14 10)
        );
    }
    bottom
    {
        type patch;
        faces
        (
            (1 5 4 0)
            (16 0 4 20)
            (1 17 21 5)
        );
    }
    leftLet
    {
        type patch;
        faces
        (
            (16 20 23 19)
            (8 12 15 11)
        );
    }
    rightLet
    {
        type patch;
        faces
        (
            (17 21 22 18)
            (10 14 13 9)
        );
    }
    frontAndBack
    {
        type empty;
        faces
        (
            (0 3 2 1)
            (8 11 10 9)
            (4 5 6 7)
            (12 13 14 15)
            (16 0 3 19)
            (1 17 18 2)
            (20 4 7 23)
            (5 21 22 6)
        );
    }
);

mergePatchPairs
(
(internal_top topWall_bottom)
);

// ************************************************************************* //
