/*--------------------------------*- C++ -*----------------------------------*\
| =========                 |                                                 |
| \\      /  F ield         | OpenFOAM: The Open Source CFD Toolbox           |
|  \\    /   O peration     | Version:  2.1.x                                 |
|   \\  /    A nd           | Web:      www.OpenFOAM.org                      |
|    \\/     M anipulation  |                                                 |
\*---------------------------------------------------------------------------*/
FoamFile
{
    version     2.0;
    format      ascii;
    class       dictionary;
    object      blockMeshDict;
}
// * * * * * * * * * * * * * * * * * * * * * * * * * * * * * * * * * * * * * //

scale 1.0;

vertices
(
    (0 0 0) //0
    (2 0 0) //1
    (2 0.2 0) //2
    (0 0.2 0) //3
    (0 0 0.1) //4
    (2 0 0.1) //5
    (2 0.2 0.1) //6
    (0 0.2 0.1) //7
    (0 0.2 0) //8
    (2 0.2 0) //9
    (2 0.26 0) //10
    (0 0.26 0) //11
    (0 0.2 0.1) //12
    (2 0.2 0.1) //13
    (2 0.26 0.1) //14
    (0 0.26 0.1) //15
);

blocks
(
    hex (0 1 2 3 4 5 6 7) (300 100 1) simpleGrading (1 1 1)
    hex (8 9 10 11 12 13 14 15) (300 10 1) simpleGrading (1 1 1)
);

edges
(

);

boundary
(
    internal_top
    {
        type patch;
        faces
        (
            (3 7 6 2)
        );
    }
    topWall_bottom
    {
        type patch;
        faces
        (
            (8 12 13 9)
        );
    }
    topWall_top
    {
        type patch;
        faces
        (
            (11 15 14 10)
        );
    }
    bottom
    {
        type patch;
        faces
        (
            (1 5 4 0)
        );
    }
    leftLet
    {
        type patch;
        faces
        (
            (0 4 7 3)
            (8 12 15 11)
        );
    }
    rightLet
    {
        type patch;
        faces
        (
            (2 6 5 1)
            (10 14 13 9)
        );
    }
    frontAndBack
    {
        type empty;
        faces
        (
            (0 3 2 1)
            (8 11 10 9)
            (4 5 6 7)
            (12 13 14 15)
        );
    }
);

mergePatchPairs
(
(internal_top topWall_bottom)
);

// ************************************************************************* //
