/*--------------------------------*- C++ -*----------------------------------*\
| =========                 |                                                 |
| \\      /  F ield         | OpenFOAM: The Open Source CFD Toolbox           |
|  \\    /   O peration     | Version:  v2012                                 |
|   \\  /    A nd           | Website:  www.openfoam.com                      |
|    \\/     M anipulation  |                                                 |
\*---------------------------------------------------------------------------*/
FoamFile
{
    version     2.0;
    format      ascii;
    class       dictionary;
    location    "system";
    object      sample;
}
// * * * * * * * * * * * * * * * * * * * * * * * * * * * * * * * * * * * * * //

functions
{
    #includeFunc mag(U)
}

type sets;
libs            (sampling);

interpolationScheme cellPointFace;

setFormat       raw;

sets
(
    outlet
    {
        // type    face;
        type    uniform;
        axis    y;
        start   (1.9999 0 0);
        end     (1.9999 0.2 0);
        nPoints 101;
    }
    inlet
    {
        // type    face;
        type    uniform;
        axis    y;
        start   (0.0001 0 0);
        end     (0.0001 0.2 0);
        nPoints 101;
    }
    symmetry
    {
        // type    face;
        type    uniform;
        axis    x;
        start   (0.0001 0.0001 0);
        end     (1.9999 0.0001 0);
        nPoints 101;
    }
    wall
    {
        // type    face;
        type    cloud;
        axis    x;
        points
        (

        );
    }
);

fields          (T U p);

// ************************************************************************* //
