/*--------------------------------*- C++ -*----------------------------------*\
| =========                 |                                                 |
| \\      /  F ield         | OpenFOAM: The Open Source CFD Toolbox           |
|  \\    /   O peration     | Version:  v2012                                 |
|   \\  /    A nd           | Website:  www.openfoam.com                      |
|    \\/     M anipulation  |                                                 |
\*---------------------------------------------------------------------------*/
FoamFile
{
    version     2.0;
    format      ascii;
    class       dictionary;
    location    "system";
    object      sample;
}
// * * * * * * * * * * * * * * * * * * * * * * * * * * * * * * * * * * * * * //

functions
{
    #includeFunc mag(U)
}

type sets;
libs            (sampling);

interpolationScheme cellPoint;

setFormat       raw;

sets
(
    outlet
    {
        // type    face;
        type    uniform;
        axis    y;
        start   (2.1 0 0);
        end     (2.1 0.2 0);
        nPoints 101;
    }
    inlet
    {
        // type    face;
        type    uniform;
        axis    y;
        start   (-0.1 0 0);
        end     (-0.1 0.2 0);
        nPoints 101;
    }
    outlet2
    {
        // type    face;
        type    uniform;
        axis    y;
        start   (2.2 0 0);
        end     (2.2 0.2 0);
        nPoints 101;
    }
    inlet2
    {
        // type    face;
        type    uniform;
        axis    y;
        start   (-0.2 0 0);
        end     (-0.2 0.2 0);
        nPoints 101;
    }
    outlet3
    {
        // type    face;
        type    uniform;
        axis    y;
        start   (2.3 0 0);
        end     (2.3 0.2 0);
        nPoints 101;
    }
    inlet3
    {
        // type    face;
        type    uniform;
        axis    y;
        start   (-0.3 0 0);
        end     (-0.3 0.2 0);
        nPoints 101;
    }
    outlet4
    {
        // type    face;
        type    uniform;
        axis    y;
        start   (2.4 0 0);
        end     (2.4 0.2 0);
        nPoints 101;
    }
    inlet4
    {
        // type    face;
        type    uniform;
        axis    y;
        start   (-0.4 0 0);
        end     (-0.4 0.2 0);
        nPoints 101;
    }
);

fields          (T U p);

// ************************************************************************* //
