/*--------------------------------*- C++ -*----------------------------------*\
| =========                 |                                                 |
| \\      /  F ield         | OpenFOAM: The Open Source CFD Toolbox           |
|  \\    /   O peration     | Version:  2.2.2                                 |
|   \\  /    A nd           | Web:      www.OpenFOAM.org                      |
|    \\/     M anipulation  |                                                 |
\*---------------------------------------------------------------------------*/
FoamFile
{
    version     2.0;
    format      ascii;
    class       dictionary;
    object      fvSchemes;
}
// * * * * * * * * * * * * * * * * * * * * * * * * * * * * * * * * * * * * * //

ddtSchemes
{
    default steadyState;
}

gradSchemes
{
    default         Gauss linear;
    // grad(p)         cellLimited Gauss linear 1;
}

divSchemes
{
    default         none;
    div(phi,U)      bounded Gauss upwind;
    div(phi,K)      bounded Gauss linear;
    div(U)          Gauss linear;
    div(phi,Ekp)    bounded Gauss upwind;
    div(phi,h)      bounded Gauss upwind;
    div(phi,k)      bounded Gauss upwind;
    div(phi,K)      bounded Gauss upwind;
    div(phi,epsilon) bounded Gauss upwind;
    div(phi,omega)  bounded Gauss limitedLinear 1;
    div(phi,R)      bounded Gauss upwind;
    div(R)          Gauss linear;
    div(((rho*nuEff)*dev2(T(grad(U))))) Gauss linear;
}

laplacianSchemes
{
    default        Gauss linear orthogonal;
    laplacian(DomegaEff,omega) Gauss linear uncorrected;
}

interpolationSchemes
{
    default         linear;
}

snGradSchemes
{
    // default         corrected;
    default         orthogonal;
}

wallDist
{
    method          meshWave;
}

//fluxRequired
//{
//    default         no;
//    p_rgh;
//}

// ************************************************************************* //
